Circuit: * D:\github-stuff\PCB_test_project_02_STM32_1st\spice_simulation\charge_pump.asc

Limiting rise time of source v2 to 5e-008
Limiting fall time of source v2 to 5e-008
.OP point found by inspection.

Date: Thu Mar 03 23:39:32 2022
Total elapsed time: 3.767 seconds.

tnom = 27
temp = 27
method = modified trap
totiter = 1788877
traniter = 1788877
tranpoints = 846672
accept = 664515
rejected = 182157
matrix size = 8
fillins = 0
solver = Normal
Matrix Compiler1: 282 bytes object code size  0.1/0.1/[0.1]
Matrix Compiler2: 514 bytes object code size  0.1/0.1/[0.1]

