Circuit: * D:\github-stuff\STM32-Li-ion-charger-dischager-LCD\spice_simulation\charge_pump.asc

Limiting rise time of source v3 to 5e-008
Limiting fall time of source v3 to 5e-008
Limiting rise time of source v2 to 5e-008
Limiting fall time of source v2 to 5e-008
.OP point found by inspection.

Date: Sun Apr 03 01:09:37 2022
Total elapsed time: 6.109 seconds.

tnom = 27
temp = 27
method = modified trap
totiter = 2351707
traniter = 2351707
tranpoints = 1050333
accept = 780349
rejected = 269984
matrix size = 14
fillins = 0
solver = Normal
Matrix Compiler1: 528 bytes object code size  0.1/0.1/[0.1]
Matrix Compiler2: 892 bytes object code size  0.1/0.1/[0.1]

