Circuit: * D:\github-stuff\STM32-Li-ion-charger-dischager-LCD\spice_simulation\charge_pump.asc

Limiting rise time of source v3 to 5e-005
Limiting fall time of source v3 to 5e-005
Limiting rise time of source v2 to 5e-008
Limiting fall time of source v2 to 5e-008
WARNING: Less than two connections to node N011.  This node is used by R7.
Direct Newton iteration for .op point succeeded.

Date: Wed Apr 06 21:42:41 2022
Total elapsed time: 69.234 seconds.

tnom = 27
temp = 27
method = modified trap
totiter = 17761483
traniter = 17761472
tranpoints = 8407204
accept = 6594871
rejected = 1812333
matrix size = 23
fillins = 0
solver = Normal
Matrix Compiler1: 762 bytes object code size  0.2/0.2/[0.1]
Matrix Compiler2: 1.39 KB object code size  0.1/0.3/[0.1]

