Circuit: * D:\github-stuff\STM32-Li-ion-charger-dischager-LCD\spice_simulation\constant_current.asc

Limiting rise time of source v7 to 2e-008
Limiting fall time of source v7 to 2e-008
Limiting rise time of source v5 to 2e-008
Limiting fall time of source v5 to 2e-008
Limiting rise time of source v3 to 2e-008
Limiting fall time of source v3 to 2e-008
Direct Newton iteration for .op point succeeded.

Date: Mon Jun 13 18:02:11 2022
Total elapsed time: 379.539 seconds.

tnom = 27
temp = 27
method = modified trap
totiter = 13892249
traniter = 13892240
tranpoints = 5035528
accept = 4092150
rejected = 943378
matrix size = 62
fillins = 76
solver = Normal
Thread vector: 24.3/14.5[6] 9.7/6.4[6] 6.0/4.1[6] 0.3/2.9[1]  2592/500
Matrix Compiler1: 6.79 KB object code size  3.1/1.8/[0.7]
Matrix Compiler2: 6.92 KB object code size  1.3/1.6/[0.3]

