Circuit: * D:\github-stuff\STM32-Li-ion-charger-dischager-LCD\spice_simulation\constant_current.asc

Limiting rise time of source v7 to 2e-008
Limiting fall time of source v7 to 2e-008
Limiting rise time of source v5 to 2e-008
Limiting fall time of source v5 to 2e-008
Limiting rise time of source v3 to 2e-008
Limiting fall time of source v3 to 2e-008
Direct Newton iteration for .op point succeeded.

Date: Sun Apr 03 21:13:58 2022
Total elapsed time: 325.235 seconds.

tnom = 27
temp = 27
method = modified trap
totiter = 9599297
traniter = 9599288
tranpoints = 4200026
accept = 3600021
rejected = 600005
matrix size = 58
fillins = 63
solver = Normal
Thread vector: 28.7/13.4[6] 11.9/7.1[6] 5.9/4.0[6] 0.3/4.4[1]  2592/500
Matrix Compiler1: 6.29 KB object code size  2.6/1.5/[0.6]
Matrix Compiler2: 6.39 KB object code size  1.2/1.6/[0.4]

