Circuit: * D:\github-stuff\PCB_test_project_02_STM32_1st\spice_simulation\constant_current.asc

Limiting rise time of source v7 to 2e-008
Limiting fall time of source v7 to 2e-008
Limiting rise time of source v5 to 2e-008
Limiting fall time of source v5 to 2e-008
Limiting rise time of source v3 to 2e-008
Limiting fall time of source v3 to 2e-008
Direct Newton iteration for .op point succeeded.

Date: Sun Mar 13 21:43:11 2022
Total elapsed time: 712.050 seconds.

tnom = 27
temp = 27
method = modified trap
totiter = 23026967
traniter = 23026958
tranpoints = 10500036
accept = 9000026
rejected = 1500010
matrix size = 61
fillins = 72
solver = Normal
Thread vector: 28.7/12.8[6] 10.1/6.0[6] 9.0/4.1[6] 0.4/2.9[1]  2592/500
Matrix Compiler1: 6.87 KB object code size  2.8/1.7/[0.7]
Matrix Compiler2: 6.82 KB object code size  1.4/1.7/[0.4]

