Circuit: * D:\github-stuff\STM32-Li-ion-charger-dischager-LCD\spice_simulation\Internal_Resistance_AC_Method.asc

WARNING: Less than two connections to node NC_01.  This node is used by R25.
Direct Newton iteration for .op point succeeded.

Date: Fri Mar 25 21:35:28 2022
Total elapsed time: 13.129 seconds.

tnom = 27
temp = 27
method = modified trap
totiter = 200066
traniter = 200038
tranpoints = 100020
accept = 100019
rejected = 1
matrix size = 47
fillins = 46
solver = Normal
Thread vector: 27.0/15.9[4] 9.7/5.9[4] 8.5/3.8[4] 0.3/2.6[1]  2592/500
Matrix Compiler1: 4.78 KB object code size  2.5/1.7/[0.6]
Matrix Compiler2: 4.98 KB object code size  1.0/1.3/[0.4]

