Circuit: * D:\github-stuff\STM32-Li-ion-charger-dischager-LCD\spice_simulation\Internal_Resistance_AC_Method.asc

Direct Newton iteration failed to find .op point.  (Use ".option noopiter" to skip.)
Starting Gmin stepping
Gmin = 10
Gmin = 1.07374
Gmin = 0.115292
Gmin = 0.0123794
Gmin = 0.00132923
Gmin = 0.000142725
Gmin = 1.5325e-005
Gmin = 1.6455e-006
Gmin = 1.76685e-007
Gmin = 1.89714e-008
Gmin = 2.03704e-009
Gmin = 2.18725e-010
Gmin = 2.34854e-011
Gmin = 2.52173e-012
Gmin = 2.70769e-013
Gmin = 0
Gmin stepping succeeded in finding the operating point.


Date: Mon Mar 28 15:08:05 2022
Total elapsed time: 37.210 seconds.

tnom = 27
temp = 27
method = modified trap
totiter = 1000683
traniter = 1000126
tranpoints = 500039
accept = 500034
rejected = 5
matrix size = 34
fillins = 12
solver = Normal
Thread vector: 9.7/6.6[3] 5.0/3.8[3] 2.5/5.7[1] 0.1/1.4[1]  2592/500
Matrix Compiler1: 2.20 KB object code size  1.1/0.6/[0.4]
Matrix Compiler2: 3.15 KB object code size  0.3/0.5/[0.3]

