Circuit: * D:\github-stuff\STM32-Li-ion-charger-dischager-LCD\spice_simulation\Internal_Resistance_AC_Method.asc

WARNING: Less than two connections to node NC_01.  This node is used by R25.
Direct Newton iteration failed to find .op point.  (Use ".option noopiter" to skip.)
Starting Gmin stepping
Gmin = 10
Gmin = 1.07374
Gmin = 0.115292
Gmin = 0.0123794
Gmin = 0.00132923
Gmin = 0.000142725
Gmin = 1.5325e-005
Gmin = 1.6455e-006
Gmin = 1.76685e-007
Gmin = 1.89714e-008
Gmin = 2.03704e-009
Gmin = 2.18725e-010
Gmin = 2.34854e-011
Gmin = 2.52173e-012
Gmin = 2.70769e-013
Gmin = 0
Gmin stepping succeeded in finding the operating point.


Date: Fri Mar 25 19:12:30 2022
Total elapsed time: 6.746 seconds.

tnom = 27
temp = 27
method = modified trap
totiter = 200512
traniter = 200038
tranpoints = 100020
accept = 100019
rejected = 1
matrix size = 43
fillins = 37
solver = Normal
Thread vector: 16.7/8.4[4] 3.3/5.5[1] 3.7/4.4[1] 0.2/1.5[1]  2592/500
Matrix Compiler1: 4.28 KB object code size  0.9/0.5/[0.3]
Matrix Compiler2: 4.56 KB object code size  0.5/0.6/[0.3]

