Circuit: * D:\github-stuff\STM32-Li-ion-charger-dischager-LCD\spice_simulation\Internal_Resistance_AC_Method.asc

WARNING: Node N013 is floating.

WARNING: Less than two connections to node N013.  This node is used by C2.
Direct Newton iteration for .op point succeeded.

Date: Fri Mar 25 17:18:36 2022
Total elapsed time: 3.738 seconds.

tnom = 27
temp = 27
method = modified trap
totiter = 200062
traniter = 200034
tranpoints = 100018
accept = 100018
rejected = 0
matrix size = 29
fillins = 17
solver = Normal
Thread vector: 12.7/6.0[3] 2.2/4.3[1] 2.1/3.2[1] 0.2/1.9[1]  2592/500
Matrix Compiler1: 2.16 KB object code size  0.5/0.3/[0.2]
Matrix Compiler2: 2.77 KB object code size  0.3/0.4/[0.3]

