Circuit: * D:\github-stuff\STM32-Li-ion-charger-dischager-LCD\spice_simulation\Internal_Resistance_AC_Method.asc

WARNING: Node N010 is floating.

WARNING: Less than two connections to node N010.  This node is used by C2.
Direct Newton iteration for .op point succeeded.

Date: Fri Mar 25 00:02:59 2022
Total elapsed time: 2.617 seconds.

tnom = 27
temp = 27
method = modified trap
totiter = 200371
traniter = 200331
tranpoints = 100018
accept = 100018
rejected = 0
matrix size = 20
fillins = 3
solver = Normal
Thread vector: 11.4/6.6[2] 1.5/2.2[1] 1.2/2.2[1] 0.1/1.4[1]  2592/500
Matrix Compiler1: 1.07 KB object code size  0.3/0.1/[0.1]
Matrix Compiler2: 1.68 KB object code size  0.2/0.3/[0.2]

